MODPATH_ENDPOINT_FILE 6 0                                                       
 2         16         16         16   0.912600000000000E+04
         0          0         16          0          0          0
         1
Well            
END HEADER
          1     1  2   0.000000000000000E+00   0.255269814851801E+04  1    1   20   21 1          1   0.0000000E+00   0.8750000E+00   0.5000000E+00   0.500000000000000E+03   0.521875000000000E+03   0.500000000000000E+01  1    1   19    1 2          1   0.1000000E+01   0.4795224E+00   0.5000000E+00   0.250000000000000E+02   0.536988059436235E+03   0.500000000000000E+01 0
          2     1  2   0.000000000000000E+00   0.251879115110099E+04  1    1   20   21 1          1   0.0000000E+00   0.6250000E+00   0.5000000E+00   0.500000000000000E+03   0.515625000000000E+03   0.500000000000000E+01  1    1   20    1 2          1   0.1000000E+01   0.8169963E+00   0.5000000E+00   0.250000000000000E+02   0.520424908039423E+03   0.500000000000000E+01 0
          3     1  2   0.000000000000000E+00   0.251879115110099E+04  1    1   20   21 1          1   0.0000000E+00   0.3750000E+00   0.5000000E+00   0.500000000000000E+03   0.509375000000000E+03   0.500000000000000E+01  1    1   20    1 2          1   0.1000000E+01   0.1545173E+00   0.5000000E+00   0.250000000000000E+02   0.503862932333364E+03   0.500000000000000E+01 0
          4     1  2   0.000000000000000E+00   0.255311324220970E+04  1    1   20   21 1          1   0.0000000E+00   0.1250000E+00   0.5000000E+00   0.500000000000000E+03   0.503125000000000E+03   0.500000000000000E+01  1    1   21    1 2          1   0.1000000E+01   0.4918698E+00   0.5000000E+00   0.250000000000000E+02   0.487296745115087E+03   0.500000000000000E+01 0
          5     1  2   0.000000000000000E+00   0.298831481106675E+04  1    1   20   21 2          1   0.1000000E+01   0.8750000E+00   0.5000000E+00   0.525000000000000E+03   0.521875000000000E+03   0.500000000000000E+01  1    1   17    1 2          1   0.1000000E+01   0.6698262E+00   0.5000000E+00   0.250000000000000E+02   0.591745654403947E+03   0.500000000000000E+01 0
          6     1  2   0.000000000000000E+00   0.331318964120894E+04  1    1   20   21 2          1   0.1000000E+01   0.6250000E+00   0.5000000E+00   0.525000000000000E+03   0.515625000000000E+03   0.500000000000000E+01  1    1   17    1 2          1   0.1000000E+01   0.8845160E+00   0.5000000E+00   0.250000000000000E+02   0.597112898774019E+03   0.500000000000000E+01 0
          7     1  2   0.000000000000000E+00   0.331090056752165E+04  1    1   20   21 2          1   0.1000000E+01   0.3750000E+00   0.5000000E+00   0.525000000000000E+03   0.509375000000000E+03   0.500000000000000E+01  1    1   23    1 2          1   0.1000000E+01   0.8355264E-01   0.5000000E+00   0.250000000000000E+02   0.427088815985448E+03   0.500000000000000E+01 0
          8     1  2   0.000000000000000E+00   0.298887612953684E+04  1    1   20   21 2          1   0.1000000E+01   0.1250000E+00   0.5000000E+00   0.525000000000000E+03   0.503125000000000E+03   0.500000000000000E+01  1    1   23    1 2          1   0.1000000E+01   0.2983581E+00   0.5000000E+00   0.250000000000000E+02   0.432458953211827E+03   0.500000000000000E+01 0
          9     1  2   0.000000000000000E+00   0.259743723709227E+04  1    1   20   21 4          1   0.1250000E+00   0.1000000E+01   0.5000000E+00   0.503125000000000E+03   0.525000000000000E+03   0.500000000000000E+01  1    1   18    1 2          1   0.1000000E+01   0.2958256E-01   0.5000000E+00   0.250000000000000E+02   0.550739563912947E+03   0.500000000000000E+01 0
         10     1  2   0.000000000000000E+00   0.265204239231874E+04  1    1   20   21 4          1   0.3750000E+00   0.1000000E+01   0.5000000E+00   0.509375000000000E+03   0.525000000000000E+03   0.500000000000000E+01  1    1   18    1 2          1   0.1000000E+01   0.4673890E+00   0.5000000E+00   0.250000000000000E+02   0.561684725107885E+03   0.500000000000000E+01 0
         11     1  2   0.000000000000000E+00   0.271649122420116E+04  1    1   20   21 4          1   0.6250000E+00   0.1000000E+01   0.5000000E+00   0.515625000000000E+03   0.525000000000000E+03   0.500000000000000E+01  1    1   18    1 2          1   0.1000000E+01   0.9051997E+00   0.5000000E+00   0.250000000000000E+02   0.572629992162221E+03   0.500000000000000E+01 0
         12     1  2   0.000000000000000E+00   0.280858615239771E+04  1    1   20   21 4          1   0.8750000E+00   0.1000000E+01   0.5000000E+00   0.521875000000000E+03   0.525000000000000E+03   0.500000000000000E+01  1    1   17    1 2          1   0.1000000E+01   0.3433551E+00   0.5000000E+00   0.250000000000000E+02   0.583583878277606E+03   0.500000000000000E+01 0
         13     1  2   0.000000000000000E+00   0.259869281977744E+04  1    1   20   21 3          1   0.1250000E+00   0.0000000E+00   0.5000000E+00   0.503125000000000E+03   0.500000000000000E+03   0.500000000000000E+01  1    1   22    1 2          1   0.1000000E+01   0.9413608E+00   0.5000000E+00   0.250000000000000E+02   0.473534018894803E+03   0.500000000000000E+01 0
         14     1  2   0.000000000000000E+00   0.265289755633096E+04  1    1   20   21 3          1   0.3750000E+00   0.0000000E+00   0.5000000E+00   0.509375000000000E+03   0.500000000000000E+03   0.500000000000000E+01  1    1   22    1 2          1   0.1000000E+01   0.5028185E+00   0.5000000E+00   0.250000000000000E+02   0.462570463310325E+03   0.500000000000000E+01 0
         15     1  2   0.000000000000000E+00   0.271725661534316E+04  1    1   20   21 3          1   0.6250000E+00   0.0000000E+00   0.5000000E+00   0.515625000000000E+03   0.500000000000000E+03   0.500000000000000E+01  1    1   22    1 2          1   0.1000000E+01   0.6427815E-01   0.5000000E+00   0.250000000000000E+02   0.451606953745129E+03   0.500000000000000E+01 0
         16     1  2   0.000000000000000E+00   0.280999628437308E+04  1    1   20   21 3          1   0.8750000E+00   0.0000000E+00   0.5000000E+00   0.521875000000000E+03   0.500000000000000E+03   0.500000000000000E+01  1    1   23    1 2          1   0.1000000E+01   0.6252983E+00   0.5000000E+00   0.250000000000000E+02   0.440632457094451E+03   0.500000000000000E+01 0
