                                  MODFLOW-2005     
      U.S. GEOLOGICAL SURVEY MODULAR FINITE-DIFFERENCE GROUND-WATER FLOW MODEL
                            VERSION 1.11.00 8/8/2013

 LIST FILE: tutorial_2.lst
                         UNIT   11

 OPENING tutorial_2.cbc
 FILE TYPE:DATA(BINARY)   UNIT    9   STATUS:REPLACE
 FORMAT:UNFORMATTED            ACCESS:STREAM              

 OPENING tutorial_2.dis
 FILE TYPE:DIS   UNIT   12   STATUS:OLD    
 FORMAT:FORMATTED              ACCESS:SEQUENTIAL          

 OPENING tutorial_2.bas
 FILE TYPE:BAS6   UNIT   13   STATUS:OLD    
 FORMAT:FORMATTED              ACCESS:SEQUENTIAL          

 OPENING tutorial_2.oc
 FILE TYPE:OC   UNIT   39   STATUS:OLD    
 FORMAT:FORMATTED              ACCESS:SEQUENTIAL          

 OPENING tutorial_2.bhd
 FILE TYPE:DATA(BINARY)   UNIT   37   STATUS:REPLACE
 FORMAT:UNFORMATTED            ACCESS:STREAM              

 OPENING tutorial_2.fdn
 FILE TYPE:DATA   UNIT   38   STATUS:REPLACE
 FORMAT:FORMATTED              ACCESS:SEQUENTIAL          

 OPENING tutorial_2.pcg
 FILE TYPE:PCG   UNIT   18   STATUS:OLD    
 FORMAT:FORMATTED              ACCESS:SEQUENTIAL          

 OPENING tutorial_2.lpf
 FILE TYPE:LPF   UNIT   14   STATUS:OLD    
 FORMAT:FORMATTED              ACCESS:SEQUENTIAL          

 OPENING tutorial_2.wel
 FILE TYPE:WEL   UNIT   20   STATUS:OLD    
 FORMAT:FORMATTED              ACCESS:SEQUENTIAL          

 OPENING tutorial_2.fhb
 FILE TYPE:FHB   UNIT  146   STATUS:OLD    
 FORMAT:FORMATTED              ACCESS:SEQUENTIAL          

 OPENING tutorial_2.rch
 FILE TYPE:RCH   UNIT   24   STATUS:OLD    
 FORMAT:FORMATTED              ACCESS:SEQUENTIAL          

 BAS -- BASIC PACKAGE, VERSION 7, 5/2/2005 INPUT READ FROM UNIT   13

 MODFLOW was compiled using mixed precision
 Precision of REAL variables:           6
 Precision of DOUBLE PRECISION variables:          15

 DISCRETIZATION INPUT DATA READ FROM UNIT   12
 # Discretization File created on 09.04.2021 by ModelMuse version 4.3.0.0.
 # Upper left corner: (0, 1000)
 # Lower left corner: (0, 0)
 # Upper right corner: (1000, 1000)
 # Lower right corner: (1000, 0)
 # Grid angle (in degrees counterclockwise): 0
    1 LAYERS        40 ROWS        40 COLUMNS
    2 STRESS PERIOD(S) IN SIMULATION
 MODEL TIME UNIT IS DAYS
 MODEL LENGTH UNIT IS METERS
  Confining bed flag for each layer:
   0

                     DELR =   25.0000    

                     DELC =   25.0000    

 TOP ELEVATION OF LAYER 1 =   20.0000    

   MODEL LAYER BOTTOM EL. =   0.00000     FOR LAYER   1


 STRESS PERIOD     LENGTH       TIME STEPS     MULTIPLIER FOR DELT    SS FLAG
 ----------------------------------------------------------------------------
        1         1.000000          1                    1.000         SS
        2         9125.000          1                    1.000         TR

 COMBINED STEADY-STATE AND TRANSIENT SIMULATION




 # Basic Package file created on 09.04.2021 by ModelMuse version 4.3.0.0.        
 # Number of active cells = 1600.                                                
 THE FREE FORMAT OPTION HAS BEEN SELECTED
 THE PRINTTIME OPTION HAS BEEN SELECTED
 CALCULATE FLOW BETWEEN ADJACENT CONSTANT-HEAD CELLS

           BOUNDARY ARRAY =              1 FOR LAYER   1

 AQUIFER HEAD WILL BE SET TO -1.00000E+20 AT ALL NO-FLOW NODES (IBOUND=0).

             INITIAL HEAD =   12.0000     FOR LAYER   1
 # Output Control file created on 09.04.2021 by ModelMuse version 4.3.0.0.

 OUTPUT CONTROL IS SPECIFIED ONLY AT TIME STEPS FOR WHICH OUTPUT IS DESIRED
 DRAWDOWN WILL BE SAVED WITH FORMAT: (10(1X1PE13.5))     
 SAVED DRAWDOWN WILL BE LABELED
 COMPACT CELL-BY-CELL BUDGET FILES WILL BE WRITTEN
 AUXILIARY DATA WILL BE SAVED IN CELL-BY-CELL BUDGET FILES
 HEAD PRINT FORMAT CODE IS   0    DRAWDOWN PRINT FORMAT CODE IS   0
 HEADS WILL BE SAVED ON UNIT   37    DRAWDOWNS WILL BE SAVED ON UNIT   38

 LPF -- LAYER-PROPERTY FLOW PACKAGE, VERSION 7, 5/2/2005
         INPUT READ FROM UNIT   14
 # LPF: Layer Property Flow package file created on 09.04.2021 by ModelMuse version 4.3.0.0.
 CELL-BY-CELL FLOWS WILL BE SAVED ON UNIT    9
 HEAD AT CELLS THAT CONVERT TO DRY= -2.00000E+20
 No named parameters

   LAYER FLAGS:
 LAYER       LAYTYP        LAYAVG         CHANI        LAYVKA        LAYWET
 ---------------------------------------------------------------------------
    1             1             0    -1.000E+00             0             0

   INTERPRETATION OF LAYER FLAGS:
                        INTERBLOCK     HORIZONTAL    DATA IN
         LAYER TYPE   TRANSMISSIVITY   ANISOTROPY   ARRAY VKA   WETTABILITY
 LAYER      (LAYTYP)      (LAYAVG)       (CHANI)      (LAYVKA)      (LAYWET)
 ---------------------------------------------------------------------------
    1   CONVERTIBLE      HARMONIC      VARIABLE    VERTICAL K  NON-WETTABLE

 WETTING CAPABILITY IS NOT ACTIVE IN ANY LAYER

    HYD. COND. ALONG ROWS =   10.0000     FOR LAYER   1

   HORIZ. ANI. (COL./ROW) =   1.00000     FOR LAYER   1

      VERTICAL HYD. COND. =   10.0000     FOR LAYER   1

         SPECIFIC STORAGE =  1.000000E-05 FOR LAYER   1

           SPECIFIC YIELD =  0.200000     FOR LAYER   1

 WEL -- WELL PACKAGE, VERSION 7, 5/2/2005 INPUT READ FROM UNIT   20
 # WEL: Well package file created on 09.04.2021 by ModelMuse version 4.3.0.0.
 No named parameters
 MAXIMUM OF      1 ACTIVE WELLS AT ONE TIME
 CELL-BY-CELL FLOWS WILL BE SAVED ON UNIT    9
 AUXILIARY WELL VARIABLE: IFACE           


     0 Well parameters

 RCH -- RECHARGE PACKAGE, VERSION 7, 5/2/2005 INPUT READ FROM UNIT   24
 # RCH: Recharge package file created on 09.04.2021 by ModelMuse version 4.3.0.0.
 No named parameters
 OPTION 1 -- RECHARGE TO TOP LAYER
 CELL-BY-CELL FLOWS WILL BE SAVED ON UNIT    9


     0 Recharge parameters

 FHB1 -- SPECIFIED FLOW PACKAGE, VERSION 1,12/3/96 INPUT READ FROM146
 TOTAL OF    3 TIMES WILL BE USED TO DEFINE VARIATIONS IN FLOW AND HEAD.
 FLOW WILL BE SPECIFIED AT A TOTAL OF    0 CELLS.
 HEAD WILL BE SPECIFIED AT A TOTAL OF   80 CELLS.
 FHB STEADY-STATE OPTION FLAG WILL BE IGNORED,
 AT LEAST ONE STRESS PERIOD IS TRANSIENT.
 CELL-BY-CELL FLOWS WILL BE RECORDED ON UNIT  9
  1 AUXILIARY VARIABLES FOR SPECIFIED-FLOW CELLS WILL
  BE DEFINED BY FHB FOR USE BY OTHER PACKAGES.
       NAME      WEIGHTING FACTOR
 --------------------------------
 IFACE                  0.00
  1 AUXILIARY VARIABLES FOR SPECIFIED-HEAD CELLS WILL
  BE DEFINED BY FHB FOR USE BY OTHER PACKAGES.
       NAME      WEIGHTING FACTOR
 --------------------------------
 IFACE                  0.00
 TIMES FOR SPECIFIED-FLOW AND HEAD VALUES WILL BE READ ON UNIT 146 AND
 MULTIPLIED BY   1.000    .
     3 TIMES FOR SPECIFYING FLOWS AND HEADS:
                       1           2           3
                 ------------------------------------
                    0.000       1.000       9126.    

 CELL INDICIES AND SPECIFIED-HEAD VALUES WILL BE READ ON UNIT 146. HEAD VALUES
 WILL BE MULTIPLIED BY   1.000    .
 LAYER  ROW  COL IAUX             HEAD VALUES
 -------------------------------------------------------
    1    1    1    0   15.00       15.00       15.00    
    1    2    1    0   15.00       15.00       15.00    
    1    3    1    0   15.00       15.00       15.00    
    1    4    1    0   15.00       15.00       15.00    
    1    5    1    0   15.00       15.00       15.00    
    1    6    1    0   15.00       15.00       15.00    
    1    7    1    0   15.00       15.00       15.00    
    1    8    1    0   15.00       15.00       15.00    
    1    9    1    0   15.00       15.00       15.00    
    1   10    1    0   15.00       15.00       15.00    
    1   11    1    0   15.00       15.00       15.00    
    1   12    1    0   15.00       15.00       15.00    
    1   13    1    0   15.00       15.00       15.00    
    1   14    1    0   15.00       15.00       15.00    
    1   15    1    0   15.00       15.00       15.00    
    1   16    1    0   15.00       15.00       15.00    
    1   17    1    0   15.00       15.00       15.00    
    1   18    1    0   15.00       15.00       15.00    
    1   19    1    0   15.00       15.00       15.00    
    1   20    1    0   15.00       15.00       15.00    
    1   21    1    0   15.00       15.00       15.00    
    1   22    1    0   15.00       15.00       15.00    
    1   23    1    0   15.00       15.00       15.00    
    1   24    1    0   15.00       15.00       15.00    
    1   25    1    0   15.00       15.00       15.00    
    1   26    1    0   15.00       15.00       15.00    
    1   27    1    0   15.00       15.00       15.00    
    1   28    1    0   15.00       15.00       15.00    
    1   29    1    0   15.00       15.00       15.00    
    1   30    1    0   15.00       15.00       15.00    
    1   31    1    0   15.00       15.00       15.00    
    1   32    1    0   15.00       15.00       15.00    
    1   33    1    0   15.00       15.00       15.00    
    1   34    1    0   15.00       15.00       15.00    
    1   35    1    0   15.00       15.00       15.00    
    1   36    1    0   15.00       15.00       15.00    
    1   37    1    0   15.00       15.00       15.00    
    1   38    1    0   15.00       15.00       15.00    
    1   39    1    0   15.00       15.00       15.00    
    1   40    1    0   15.00       15.00       15.00    
    1    1   40    0   12.00       12.00       12.00    
    1    2   40    0   12.00       12.00       12.00    
    1    3   40    0   12.00       12.00       12.00    
    1    4   40    0   12.00       12.00       12.00    
    1    5   40    0   12.00       12.00       12.00    
    1    6   40    0   12.00       12.00       12.00    
    1    7   40    0   12.00       12.00       12.00    
    1    8   40    0   12.00       12.00       12.00    
    1    9   40    0   12.00       12.00       12.00    
    1   10   40    0   12.00       12.00       12.00    
    1   11   40    0   12.00       12.00       12.00    
    1   12   40    0   12.00       12.00       12.00    
    1   13   40    0   12.00       12.00       12.00    
    1   14   40    0   12.00       12.00       12.00    
    1   15   40    0   12.00       12.00       12.00    
    1   16   40    0   12.00       12.00       12.00    
    1   17   40    0   12.00       12.00       12.00    
    1   18   40    0   12.00       12.00       12.00    
    1   19   40    0   12.00       12.00       12.00    
    1   20   40    0   12.00       12.00       12.00    
    1   21   40    0   12.00       12.00       12.00    
    1   22   40    0   12.00       12.00       12.00    
    1   23   40    0   12.00       12.00       12.00    
    1   24   40    0   12.00       12.00       12.00    
    1   25   40    0   12.00       12.00       12.00    
    1   26   40    0   12.00       12.00       12.00    
    1   27   40    0   12.00       12.00       12.00    
    1   28   40    0   12.00       12.00       12.00    
    1   29   40    0   12.00       12.00       12.00    
    1   30   40    0   12.00       12.00       12.00    
    1   31   40    0   12.00       12.00       12.00    
    1   32   40    0   12.00       12.00       12.00    
    1   33   40    0   12.00       12.00       12.00    
    1   34   40    0   12.00       12.00       12.00    
    1   35   40    0   12.00       12.00       12.00    
    1   36   40    0   12.00       12.00       12.00    
    1   37   40    0   12.00       12.00       12.00    
    1   38   40    0   12.00       12.00       12.00    
    1   39   40    0   12.00       12.00       12.00    
    1   40   40    0   12.00       12.00       12.00    

 IFACE           FOR SPECIFIED-HEAD CELLS WILL BE READ ON UNIT 146.
 VALUES WILL BE MULTIPLIED BY   1.000    .
 LAYER  ROW  COL IAUX  IFACE           
 -------------------------------------------------------
    1    1    1    0   0.000       0.000       0.000    
    1    2    1    0   0.000       0.000       0.000    
    1    3    1    0   0.000       0.000       0.000    
    1    4    1    0   0.000       0.000       0.000    
    1    5    1    0   0.000       0.000       0.000    
    1    6    1    0   0.000       0.000       0.000    
    1    7    1    0   0.000       0.000       0.000    
    1    8    1    0   0.000       0.000       0.000    
    1    9    1    0   0.000       0.000       0.000    
    1   10    1    0   0.000       0.000       0.000    
    1   11    1    0   0.000       0.000       0.000    
    1   12    1    0   0.000       0.000       0.000    
    1   13    1    0   0.000       0.000       0.000    
    1   14    1    0   0.000       0.000       0.000    
    1   15    1    0   0.000       0.000       0.000    
    1   16    1    0   0.000       0.000       0.000    
    1   17    1    0   0.000       0.000       0.000    
    1   18    1    0   0.000       0.000       0.000    
    1   19    1    0   0.000       0.000       0.000    
    1   20    1    0   0.000       0.000       0.000    
    1   21    1    0   0.000       0.000       0.000    
    1   22    1    0   0.000       0.000       0.000    
    1   23    1    0   0.000       0.000       0.000    
    1   24    1    0   0.000       0.000       0.000    
    1   25    1    0   0.000       0.000       0.000    
    1   26    1    0   0.000       0.000       0.000    
    1   27    1    0   0.000       0.000       0.000    
    1   28    1    0   0.000       0.000       0.000    
    1   29    1    0   0.000       0.000       0.000    
    1   30    1    0   0.000       0.000       0.000    
    1   31    1    0   0.000       0.000       0.000    
    1   32    1    0   0.000       0.000       0.000    
    1   33    1    0   0.000       0.000       0.000    
    1   34    1    0   0.000       0.000       0.000    
    1   35    1    0   0.000       0.000       0.000    
    1   36    1    0   0.000       0.000       0.000    
    1   37    1    0   0.000       0.000       0.000    
    1   38    1    0   0.000       0.000       0.000    
    1   39    1    0   0.000       0.000       0.000    
    1   40    1    0   0.000       0.000       0.000    
    1    1   40    0   0.000       0.000       0.000    
    1    2   40    0   0.000       0.000       0.000    
    1    3   40    0   0.000       0.000       0.000    
    1    4   40    0   0.000       0.000       0.000    
    1    5   40    0   0.000       0.000       0.000    
    1    6   40    0   0.000       0.000       0.000    
    1    7   40    0   0.000       0.000       0.000    
    1    8   40    0   0.000       0.000       0.000    
    1    9   40    0   0.000       0.000       0.000    
    1   10   40    0   0.000       0.000       0.000    
    1   11   40    0   0.000       0.000       0.000    
    1   12   40    0   0.000       0.000       0.000    
    1   13   40    0   0.000       0.000       0.000    
    1   14   40    0   0.000       0.000       0.000    
    1   15   40    0   0.000       0.000       0.000    
    1   16   40    0   0.000       0.000       0.000    
    1   17   40    0   0.000       0.000       0.000    
    1   18   40    0   0.000       0.000       0.000    
    1   19   40    0   0.000       0.000       0.000    
    1   20   40    0   0.000       0.000       0.000    
    1   21   40    0   0.000       0.000       0.000    
    1   22   40    0   0.000       0.000       0.000    
    1   23   40    0   0.000       0.000       0.000    
    1   24   40    0   0.000       0.000       0.000    
    1   25   40    0   0.000       0.000       0.000    
    1   26   40    0   0.000       0.000       0.000    
    1   27   40    0   0.000       0.000       0.000    
    1   28   40    0   0.000       0.000       0.000    
    1   29   40    0   0.000       0.000       0.000    
    1   30   40    0   0.000       0.000       0.000    
    1   31   40    0   0.000       0.000       0.000    
    1   32   40    0   0.000       0.000       0.000    
    1   33   40    0   0.000       0.000       0.000    
    1   34   40    0   0.000       0.000       0.000    
    1   35   40    0   0.000       0.000       0.000    
    1   36   40    0   0.000       0.000       0.000    
    1   37   40    0   0.000       0.000       0.000    
    1   38   40    0   0.000       0.000       0.000    
    1   39   40    0   0.000       0.000       0.000    
    1   40   40    0   0.000       0.000       0.000    

 PCG -- CONJUGATE-GRADIENT SOLUTION PACKAGE, VERSION 7, 5/2/2005
 # PCG: Preconditioned Conjugate Gradient package file created on 09.04.2021 by ModelMuse version 4.3.0.0.
 MAXIMUM OF     20 CALLS OF SOLUTION ROUTINE
 MAXIMUM OF     30 INTERNAL ITERATIONS PER CALL TO SOLUTION ROUTINE
 MATRIX PRECONDITIONING TYPE :    1



                                    SOLUTION BY THE CONJUGATE-GRADIENT METHOD
                                   -------------------------------------------
                    MAXIMUM NUMBER OF CALLS TO PCG ROUTINE =       20
                        MAXIMUM ITERATIONS PER CALL TO PCG =       30
                               MATRIX PRECONDITIONING TYPE =        1
        RELAXATION FACTOR (ONLY USED WITH PRECOND. TYPE 1) =    0.10000E+01
 PARAMETER OF POLYNOMIAL PRECOND. = 2 (2) OR IS CALCULATED :        1
                         HEAD CHANGE CRITERION FOR CLOSURE =    0.10000E-02
                     RESIDUAL CHANGE CRITERION FOR CLOSURE =    0.10000E-02
            PCG HEAD AND RESIDUAL CHANGE PRINTOUT INTERVAL =        1
     PRINTING FROM SOLVER IS LIMITED(1) OR SUPPRESSED (>1) =        0
                            STEADY-STATE DAMPING PARAMETER =    0.10000E+01
                               TRANSIENT DAMPING PARAMETER =    0.10000E+01
1
                            STRESS PERIOD NO.    1, LENGTH =   1.000000    
                            -----------------------------------------------

                              NUMBER OF TIME STEPS =     1

                               MULTIPLIER FOR DELT =     1.000

                            INITIAL TIME STEP SIZE =   1.000000    

 WELL NO.  LAYER   ROW   COL   STRESS RATE         IFACE           
 ------------------------------------------------------------------
      1      1     20     21       0.000           0.000    

      1 WELL 

                 RECHARGE =  5.500000E-04

 SOLVING FOR HEAD 


     4 CALLS TO PCG ROUTINE FOR TIME STEP   1 IN STRESS PERIOD    1
    50 TOTAL ITERATIONS

 MAXIMUM HEAD CHANGE FOR EACH ITERATION (1 INDICATES THE FIRST INNER ITERATION):

    HEAD CHANGE    HEAD CHANGE    HEAD CHANGE    HEAD CHANGE    HEAD CHANGE 
   LAYER,ROW,COL  LAYER,ROW,COL  LAYER,ROW,COL  LAYER,ROW,COL  LAYER,ROW,COL
 ---------------------------------------------------------------------------
  1   3.689      0  -1.458      0 -0.6679      0 -0.3515      0 -0.1510    
   (  1, 38, 23)  (  1, 40, 31)  (  1, 40, 23)  (  1, 40, 17)  (  1, 40, 13)
  0 -0.9372E-01  0 -0.5483E-01  0 -0.2827E-01  0 -0.1210E-01  0 -0.5826E-02
   (  1, 40, 10)  (  1, 40,  8)  (  1, 40,  6)  (  1, 40,  4)  (  1, 37, 21)
  0  0.4933E-02  0  0.3724E-02  0 -0.1730E-02  0 -0.7950E-03  0 -0.3856E-03
   (  1,  9, 17)  (  1,  4, 23)  (  1, 34, 21)  (  1, 39,  7)  (  1, 39,  6)
  0 -0.2484E-03  0 -0.1456E-03  0 -0.6699E-04  0 -0.2973E-04  0  0.1561E-04
   (  1, 33, 20)  (  1, 40, 39)  (  1, 40, 39)  (  1, 40, 39)  (  1, 32, 33)
  0 -0.7246E-05  0 -0.3359E-05  0  0.2034E-05  1  0.3721E-01  0  0.1188E-01
   (  1, 25, 19)  (  1,  6, 13)  (  1, 40, 39)  (  1,  5, 26)  (  1,  1, 31)
  0  0.1270E-01  0  0.5853E-02  0 -0.3630E-02  0  0.1823E-02  0 -0.1163E-02
   (  1, 40, 26)  (  1, 40, 18)  (  1,  1, 23)  (  1, 36, 27)  (  1, 40, 34)
  0 -0.5143E-03  0 -0.3171E-03  0  0.1809E-03  0 -0.1372E-03  0 -0.6459E-04
   (  1,  4, 23)  (  1,  7, 19)  (  1,  1, 13)  (  1, 40, 25)  (  1, 26, 24)
  0 -0.4197E-04  0 -0.2151E-04  0 -0.8922E-05  0 -0.4725E-05  1 -0.1535E-02
   (  1, 38, 28)  (  1, 34, 31)  (  1,  2, 33)  (  1, 39, 21)  (  1,  5, 18)
  0 -0.6263E-03  0 -0.5833E-03  0 -0.2599E-03  0 -0.1394E-03  0 -0.6644E-04
   (  1, 21, 23)  (  1, 40, 17)  (  1, 40, 12)  (  1,  1, 34)  (  1, 40,  6)
  0 -0.3765E-04  0 -0.1853E-04  0 -0.1824E-04  0 -0.7748E-05  1  0.4085E-04
   (  1, 13, 21)  (  1,  4, 24)  (  1,  4, 28)  (  1,  7, 23)  (  1, 38, 20)

 MAXIMUM RESIDUAL FOR EACH ITERATION (1 INDICATES THE FIRST INNER ITERATION):

    RESIDUAL       RESIDUAL       RESIDUAL       RESIDUAL       RESIDUAL    
   LAYER,ROW,COL  LAYER,ROW,COL  LAYER,ROW,COL  LAYER,ROW,COL  LAYER,ROW,COL
 ---------------------------------------------------------------------------
  1   46.26      0   17.51      0  -10.92      0  -8.839      0  -7.150    
   (  1, 40, 37)  (  1, 40, 39)  (  1,  1, 33)  (  1,  1, 36)  (  1,  1, 38)
  0  -5.663      0  -3.350      0   2.226      0   1.418      0  0.8246    
   (  1,  1, 39)  (  1,  1, 39)  (  1,  2, 39)  (  1,  2, 39)  (  1,  2, 39)
  0 -0.4444      0 -0.3196      0  0.1828      0  0.1377      0  0.8048E-01
   (  1,  2, 38)  (  1,  2, 38)  (  1, 39,  6)  (  1, 40, 39)  (  1, 40, 39)
  0  0.4367E-01  0  0.1562E-01  0 -0.7936E-02  0 -0.3791E-02  0 -0.2511E-02
   (  1, 40, 39)  (  1, 40, 39)  (  1, 39,  6)  (  1, 39,  5)  (  1, 40, 39)
  0 -0.1840E-02  0 -0.1002E-02  0 -0.4743E-03  1  0.4992      0  0.5196    
   (  1, 40, 39)  (  1, 40, 39)  (  1, 40, 39)  (  1,  1, 13)  (  1, 40, 39)
  0 -0.5273      0 -0.4434      0 -0.2817      0  0.1735      0  0.1280    
   (  1,  1, 38)  (  1,  1, 39)  (  1,  1, 39)  (  1,  2, 39)  (  1,  2, 39)
  0 -0.6806E-01  0 -0.4353E-01  0 -0.3243E-01  0 -0.1778E-01  0 -0.1041E-01
   (  1,  2, 37)  (  1,  2, 37)  (  1,  2, 38)  (  1, 40, 39)  (  1, 40, 39)
  0  0.6226E-02  0 -0.2606E-02  0 -0.1422E-02  0 -0.6725E-03  1 -0.2578E-01
   (  1,  3, 38)  (  1, 39, 39)  (  1,  3, 37)  (  1,  3, 37)  (  1, 40, 37)
  0  0.2041E-01  0  0.1871E-01  0  0.1323E-01  0  0.9102E-02  0  0.5119E-02
   (  1,  1, 29)  (  1,  1, 33)  (  1,  1, 35)  (  1,  1, 37)  (  1,  1, 38)
  0  0.3852E-02  0  0.2398E-02  0 -0.1360E-02  0 -0.8383E-03  1  0.9862E-03
   (  1, 40, 39)  (  1, 40, 39)  (  1,  2, 39)  (  1,  2, 39)  (  1, 40, 30)



 OUTPUT CONTROL FOR STRESS PERIOD    1   TIME STEP    1
 Drawdown Reference will be reset at the end of this time step
    SAVE HEAD FOR ALL LAYERS
    SAVE DRAWDOWN FOR ALL LAYERS
    SAVE BUDGET
    PRINT BUDGET
 UBDSV2 SAVING "   CONSTANT HEAD" ON UNIT   9 AT TIME STEP  1, STRESS PERIOD   1
 UBDSV1 SAVING "FLOW RIGHT FACE " ON UNIT   9 AT TIME STEP  1, STRESS PERIOD   1
 UBDSV1 SAVING "FLOW FRONT FACE " ON UNIT   9 AT TIME STEP  1, STRESS PERIOD   1
 UBDSV4 SAVING "           WELLS" ON UNIT   9 AT TIME STEP  1, STRESS PERIOD   1
 UBDSV3 SAVING "        RECHARGE" ON UNIT   9 AT TIME STEP  1, STRESS PERIOD   1
 UBDSV4 SAVING " SPECIFIED FLOWS" ON UNIT   9 AT TIME STEP  1, STRESS PERIOD   1

 HEAD WILL BE SAVED ON UNIT   37 AT END OF TIME STEP    1, STRESS PERIOD    1

 DRAWDOWN WILL BE SAVED ON UNIT   38 AT END OF TIME STEP    1, STRESS PERIOD    1
1
  VOLUMETRIC BUDGET FOR ENTIRE MODEL AT END OF TIME STEP    1, STRESS PERIOD   1
  ------------------------------------------------------------------------------

     CUMULATIVE VOLUMES      L**3       RATES FOR THIS TIME STEP      L**3/T
     ------------------                 ------------------------

           IN:                                      IN:
           ---                                      ---
             STORAGE =           0.0000               STORAGE =           0.0000
       CONSTANT HEAD =         154.1457         CONSTANT HEAD =         154.1457
               WELLS =           0.0000                 WELLS =           0.0000
            RECHARGE =         522.5000              RECHARGE =         522.5000
     SPECIFIED FLOWS =           0.0000       SPECIFIED FLOWS =           0.0000

            TOTAL IN =         676.6456              TOTAL IN =         676.6456

          OUT:                                     OUT:
          ----                                     ----
             STORAGE =           0.0000               STORAGE =           0.0000
       CONSTANT HEAD =         676.6440         CONSTANT HEAD =         676.6440
               WELLS =           0.0000                 WELLS =           0.0000
            RECHARGE =           0.0000              RECHARGE =           0.0000
     SPECIFIED FLOWS =           0.0000       SPECIFIED FLOWS =           0.0000

           TOTAL OUT =         676.6440             TOTAL OUT =         676.6440

            IN - OUT =       1.5869E-03              IN - OUT =       1.5869E-03

 PERCENT DISCREPANCY =           0.00     PERCENT DISCREPANCY =           0.00



 Drawdown Reference has been reset to the end of this time step



         TIME SUMMARY AT END OF TIME STEP    1 IN STRESS PERIOD    1
                    SECONDS     MINUTES      HOURS       DAYS        YEARS
                    -----------------------------------------------------------
   TIME STEP LENGTH  86400.      1440.0      24.000      1.0000     2.73785E-03
 STRESS PERIOD TIME  86400.      1440.0      24.000      1.0000     2.73785E-03
         TOTAL TIME  86400.      1440.0      24.000      1.0000     2.73785E-03
1
1
                            STRESS PERIOD NO.    2, LENGTH =   9125.000    
                            -----------------------------------------------

                              NUMBER OF TIME STEPS =     1

                               MULTIPLIER FOR DELT =     1.000

                            INITIAL TIME STEP SIZE =   9125.000    

 WELL NO.  LAYER   ROW   COL   STRESS RATE         IFACE           
 ------------------------------------------------------------------
      1      1     20     21      -60.00           0.000    

      1 WELL 

 REUSING RECH FROM LAST STRESS PERIOD

 SOLVING FOR HEAD 


     4 CALLS TO PCG ROUTINE FOR TIME STEP   1 IN STRESS PERIOD    2
    37 TOTAL ITERATIONS

 MAXIMUM HEAD CHANGE FOR EACH ITERATION (1 INDICATES THE FIRST INNER ITERATION):

    HEAD CHANGE    HEAD CHANGE    HEAD CHANGE    HEAD CHANGE    HEAD CHANGE 
   LAYER,ROW,COL  LAYER,ROW,COL  LAYER,ROW,COL  LAYER,ROW,COL  LAYER,ROW,COL
 ---------------------------------------------------------------------------
  1 -0.1654      0 -0.1007      0 -0.4417E-01  0 -0.1850E-01  0 -0.9511E-02
   (  1, 20, 21)  (  1, 20, 21)  (  1, 20, 21)  (  1, 20, 21)  (  1, 40, 11)
  0  0.5267E-02  0 -0.3335E-02  0 -0.2207E-02  0 -0.1234E-02  0 -0.6371E-03
   (  1, 31, 23)  (  1, 24, 18)  (  1, 17, 24)  (  1, 10, 30)  (  1, 40, 35)
  0 -0.3688E-03  0  0.2144E-03  0  0.1090E-03  0 -0.6804E-04  0 -0.3504E-04
   (  1, 11, 28)  (  1, 37, 19)  (  1, 28, 28)  (  1,  7, 15)  (  1, 39, 27)
  0  0.2203E-04  0 -0.9966E-05  0  0.5508E-05  0 -0.2786E-05  1  0.1832E-02
   (  1,  2, 27)  (  1, 39, 31)  (  1, 36, 22)  (  1, 39, 24)  (  1, 25, 17)
  0  0.1129E-02  0  0.1148E-02  0  0.5459E-03  0  0.3100E-03  0  0.1313E-03
   (  1, 14, 17)  (  1,  1, 16)  (  1,  1, 25)  (  1,  1, 30)  (  1,  1, 24)
  0 -0.5286E-04  0  0.4391E-04  0  0.2956E-04  0  0.1399E-04  0 -0.9728E-05
   (  1, 21, 20)  (  1,  5, 24)  (  1, 13, 22)  (  1, 40, 30)  (  1,  1, 20)
  0  0.6889E-05  0  0.2727E-05  1  0.7598E-04  0  0.3488E-04  0  0.2379E-04
   (  1,  6, 25)  (  1,  2, 31)  (  1, 24, 23)  (  1, 40, 24)  (  1, 40, 21)
  0 -0.1343E-04  1  0.4835E-05
   (  1,  1, 16)  (  1,  7, 23)

 MAXIMUM RESIDUAL FOR EACH ITERATION (1 INDICATES THE FIRST INNER ITERATION):

    RESIDUAL       RESIDUAL       RESIDUAL       RESIDUAL       RESIDUAL    
   LAYER,ROW,COL  LAYER,ROW,COL  LAYER,ROW,COL  LAYER,ROW,COL  LAYER,ROW,COL
 ---------------------------------------------------------------------------
  1   42.00      0   22.36      0   10.29      0   5.062      0   3.541    
   (  1, 20, 21)  (  1, 20, 21)  (  1, 20, 21)  (  1, 19, 22)  (  1, 21, 20)
  0   2.007      0   1.144      0  0.6378      0  0.2570      0  0.1914    
   (  1, 19, 22)  (  1, 19, 22)  (  1, 21, 20)  (  1, 21, 20)  (  1, 18, 23)
  0  0.1329      0  0.7369E-01  0  0.3543E-01  0  0.1321E-01  0  0.7742E-02
   (  1, 22, 19)  (  1, 18, 23)  (  1, 22, 19)  (  1, 22, 19)  (  1, 17, 24)
  0  0.5017E-02  0  0.2842E-02  0  0.1382E-02  0  0.5412E-03  1  0.7697    
   (  1, 17, 24)  (  1, 23, 18)  (  1, 23, 18)  (  1, 17, 24)  (  1, 20, 21)
  0  0.3966      0  0.1827      0  0.1051      0  0.7294E-01  0  0.3953E-01
   (  1, 20, 21)  (  1, 20, 21)  (  1, 21, 20)  (  1, 21, 20)  (  1, 21, 20)
  0  0.2085E-01  0  0.1134E-01  0  0.5500E-02  0  0.3908E-02  0  0.2605E-02
   (  1, 19, 22)  (  1, 19, 22)  (  1, 22, 19)  (  1, 18, 23)  (  1, 22, 19)
  0  0.1482E-02  0  0.6735E-03  1  0.4240E-02  0  0.2674E-02  0  0.1407E-02
   (  1, 22, 19)  (  1, 22, 19)  (  1, 20, 21)  (  1, 20, 21)  (  1, 20, 21)
  0 -0.6430E-03  1  0.5401E-03
   (  1,  1, 36)  (  1, 21, 20)



 OUTPUT CONTROL FOR STRESS PERIOD    2   TIME STEP    1
    SAVE HEAD FOR ALL LAYERS
    SAVE DRAWDOWN FOR ALL LAYERS
    SAVE BUDGET
    PRINT BUDGET
 UBDSV1 SAVING "         STORAGE" ON UNIT   9 AT TIME STEP  1, STRESS PERIOD   2
 UBDSV2 SAVING "   CONSTANT HEAD" ON UNIT   9 AT TIME STEP  1, STRESS PERIOD   2
 UBDSV1 SAVING "FLOW RIGHT FACE " ON UNIT   9 AT TIME STEP  1, STRESS PERIOD   2
 UBDSV1 SAVING "FLOW FRONT FACE " ON UNIT   9 AT TIME STEP  1, STRESS PERIOD   2
 UBDSV4 SAVING "           WELLS" ON UNIT   9 AT TIME STEP  1, STRESS PERIOD   2
 UBDSV3 SAVING "        RECHARGE" ON UNIT   9 AT TIME STEP  1, STRESS PERIOD   2
 UBDSV4 SAVING " SPECIFIED FLOWS" ON UNIT   9 AT TIME STEP  1, STRESS PERIOD   2

 HEAD WILL BE SAVED ON UNIT   37 AT END OF TIME STEP    1, STRESS PERIOD    2

 DRAWDOWN WILL BE SAVED ON UNIT   38 AT END OF TIME STEP    1, STRESS PERIOD    2
1
  VOLUMETRIC BUDGET FOR ENTIRE MODEL AT END OF TIME STEP    1, STRESS PERIOD   2
  ------------------------------------------------------------------------------

     CUMULATIVE VOLUMES      L**3       RATES FOR THIS TIME STEP      L**3/T
     ------------------                 ------------------------

           IN:                                      IN:
           ---                                      ---
             STORAGE =       10102.9902               STORAGE =           1.1072
       CONSTANT HEAD =     1668382.2500         CONSTANT HEAD =         182.8195
               WELLS =           0.0000                 WELLS =           0.0000
            RECHARGE =     4768335.0000              RECHARGE =         522.5000
     SPECIFIED FLOWS =           0.0000       SPECIFIED FLOWS =           0.0000

            TOTAL IN =     6446820.0000              TOTAL IN =         706.4267

          OUT:                                     OUT:
          ----                                     ----
             STORAGE =           0.0000               STORAGE =           0.0000
       CONSTANT HEAD =     5899328.5000         CONSTANT HEAD =         646.4276
               WELLS =      547500.0000                 WELLS =          60.0000
            RECHARGE =           0.0000              RECHARGE =           0.0000
     SPECIFIED FLOWS =           0.0000       SPECIFIED FLOWS =           0.0000

           TOTAL OUT =     6446828.5000             TOTAL OUT =         706.4276

            IN - OUT =          -8.5000              IN - OUT =      -9.1553E-04

 PERCENT DISCREPANCY =          -0.00     PERCENT DISCREPANCY =          -0.00






         TIME SUMMARY AT END OF TIME STEP    1 IN STRESS PERIOD    2
                    SECONDS     MINUTES      HOURS       DAYS        YEARS
                    -----------------------------------------------------------
   TIME STEP LENGTH 7.88400E+08 1.31400E+07 2.19000E+05  9125.0      24.983    
 STRESS PERIOD TIME 7.88400E+08 1.31400E+07 2.19000E+05  9125.0      24.983    
         TOTAL TIME 7.88486E+08 1.31414E+07 2.19024E+05  9126.0      24.986    
1

 Run end date and time (yyyy/mm/dd hh:mm:ss): 2021/05/24 19:17:50
 Elapsed run time:  0.161 Seconds

